91657
     RDKit          3D

 18 18  0  0  0  0  0  0  0  0999 V2000
    0.0000    7.1200    0.0000 Cl  0  0  0  0  0  0  0  0  0  0  0  0
    0.8660    3.6200    0.0000 O   0  0  0  0  0  0  0  0  0  0  0  0
    2.5981    6.6200    0.0000 O   0  0  0  0  0  0  0  0  0  0  0  0
    2.5981    3.6200    0.0000 N   0  0  0  0  0  0  0  0  0  0  0  0
    1.7320    5.1200    0.0000 N   0  0  0  0  0  0  0  0  0  0  0  0
    4.3301    0.6200    0.0000 N   0  0  0  0  0  0  0  0  0  0  0  0
    5.1962    2.1200    0.0000 N   0  0  0  0  0  0  0  0  0  0  0  0
    2.5981    0.6200    0.0000 N   0  0  0  0  0  0  0  0  0  0  0  0
    2.5981    5.6200    0.0000 N   0  0  0  0  0  0  0  0  0  0  0  0
    2.5981    2.6200    0.0000 C   0  0  0  0  0  0  0  0  0  0  0  0
    3.4641    2.1200    0.0000 C   0  0  0  0  0  0  0  0  0  0  0  0
    3.4641    1.1200    0.0000 C   0  0  0  0  0  0  0  0  0  0  0  0
    0.8660    5.6200    0.0000 C   0  0  0  0  0  0  0  0  0  0  0  0
    1.7320    4.1200    0.0000 C   0  0  0  0  0  0  0  0  0  0  0  0
    4.3301    2.6200    0.0000 C   0  0  0  0  0  0  0  0  0  0  0  0
    0.8660    6.6200    0.0000 C   0  0  0  0  0  0  0  0  0  0  0  0
    5.1962    1.1200    0.0000 C   0  0  0  0  0  0  0  0  0  0  0  0
    6.0622    0.6200    0.0000 C   0  0  0  0  0  0  0  0  0  0  0  0
  1 16  1  0
  2 14  2  0
  3  9  2  0
  4 10  1  0
  4 14  1  0
  5  9  1  0
  5 13  1  0
  5 14  1  0
  6 12  2  0
  6 17  1  0
  7 15  1  0
  7 17  2  0
  8 12  1  0
 10 11  1  0
 11 12  1  0
 11 15  2  0
 13 16  1  0
 17 18  1  0
M  END
>  <PUBCHEM_ATOM_DEF_STEREO_COUNT>  (1) 
0

>  <PUBCHEM_ATOM_UDEF_STEREO_COUNT>  (1) 
0

>  <PUBCHEM_BONDANNOTATIONS>  (1) 
12  13  8
12  16  8
7  13  8
7  18  8
8  16  8
8  18  8

>  <PUBCHEM_BOND_DEF_STEREO_COUNT>  (1) 
0

>  <PUBCHEM_BOND_UDEF_STEREO_COUNT>  (1) 
0

>  <PUBCHEM_CACTVS_COMPLEXITY>  (1) 
292

>  <PUBCHEM_CACTVS_HBOND_ACCEPTOR>  (1) 
6

>  <PUBCHEM_CACTVS_HBOND_DONOR>  (1) 
3

>  <PUBCHEM_CACTVS_ROTATABLE_BOND>  (1) 
4

>  <PUBCHEM_CACTVS_SUBSKEYS>  (1) 
AAADccBzsAAGAAAAAAAAAAAAAAAAAAAAAAAsAAAAAAAAAAABgAAAHgIcAAAADAPBG0QvsJbIEACpAhJndACAgCkRAKAXUKA4RBCACIBASUBEBAgYBgLAACAAAAAAAAAAAAAAAAAAAAAAAAAAAAAAAAAAAA==

>  <PUBCHEM_CACTVS_TAUTO_COUNT>  (1) 
6

>  <PUBCHEM_CACTVS_TPSA>  (1) 
114

>  <PUBCHEM_COMPONENT_COUNT>  (1) 
2

>  <PUBCHEM_COMPOUND_CANONICALIZED>  (1) 
1

>  <PUBCHEM_COMPOUND_CID>  (1) 
91657

>  <PUBCHEM_COORDINATE_TYPE>  (1) 
1
5
255

>  <PUBCHEM_EXACT_MASS>  (1) 
308.055529

>  <PUBCHEM_HEAVY_ATOM_COUNT>  (1) 
19

>  <PUBCHEM_ISOTOPIC_ATOM_COUNT>  (1) 
0

>  <PUBCHEM_IUPAC_CAS_NAME>  (1) 
3-[(4-amino-2-methyl-5-pyrimidinyl)methyl]-1-(2-chloroethyl)-1-nitrosourea;hydrochloride

>  <PUBCHEM_IUPAC_INCHI>  (1) 
InChI=1S/C9H13ClN6O2.ClH/c1-6-12-4-7(8(11)14-6)5-13-9(17)16(15-18)3-2-10;/h4H,2-3,5H2,1H3,(H,13,17)(H2,11,12,14);1H

>  <PUBCHEM_IUPAC_INCHIKEY>  (1) 
KPMKNHGAPDCYLP-UHFFFAOYSA-N

>  <PUBCHEM_IUPAC_NAME>  (1) 
3-[(4-amino-2-methylpyrimidin-5-yl)methyl]-1-(2-chloroethyl)-1-nitrosourea;hydrochloride

>  <PUBCHEM_IUPAC_OPENEYE_NAME>  (1) 
3-[(4-amino-2-methyl-pyrimidin-5-yl)methyl]-1-(2-chloroethyl)-1-nitroso-urea;hydrochloride

>  <PUBCHEM_IUPAC_SYSTEMATIC_NAME>  (1) 
3-[(4-azanyl-2-methyl-pyrimidin-5-yl)methyl]-1-(2-chloroethyl)-1-nitroso-urea;hydrochloride

>  <PUBCHEM_IUPAC_TRADITIONAL_NAME>  (1) 
3-[(4-amino-2-methyl-pyrimidin-5-yl)methyl]-1-(2-chloroethyl)-1-nitroso-urea;hydrochloride

>  <PUBCHEM_MOLECULAR_FORMULA>  (1) 
C9H14Cl2N6O2

>  <PUBCHEM_MOLECULAR_WEIGHT>  (1) 
309.15246

>  <PUBCHEM_MONOISOTOPIC_WEIGHT>  (1) 
308.055529

>  <PUBCHEM_OPENEYE_CAN_SMILES>  (1) 
CC1=NC=C(C(=N1)N)CNC(=O)N(CCCl)N=O.Cl

>  <PUBCHEM_OPENEYE_ISO_SMILES>  (1) 
CC1=NC=C(C(=N1)N)CNC(=O)N(CCCl)N=O.Cl

>  <PUBCHEM_TOTAL_CHARGE>  (1) 
0

$$$$
36719
     RDKit          3D

 10  9  0  0  0  0  0  0  0  0999 V2000
    6.5380    2.0000    0.0000 F   0  0  0  0  0  0  0  0  0  0  0  0
    6.1720    0.6340    0.0000 F   0  0  0  0  0  0  0  0  0  0  0  0
    5.1720    2.3660    0.0000 F   0  0  0  0  0  0  0  0  0  0  0  0
    3.0739    2.0000    0.0000 F   0  0  0  0  0  0  0  0  0  0  0  0
    3.4399    0.6340    0.0000 F   0  0  0  0  0  0  0  0  0  0  0  0
    4.4399    2.3660    0.0000 F   0  0  0  0  0  0  0  0  0  0  0  0
    4.8059    0.0000    0.0000 O   0  0  0  0  0  0  0  0  0  0  0  0
    4.8059    1.0000    0.0000 C   0  0  0  0  0  0  0  0  0  0  0  0
    5.6720    1.5000    0.0000 C   0  0  0  0  0  0  0  0  0  0  0  0
    3.9399    1.5000    0.0000 C   0  0  0  0  0  0  0  0  0  0  0  0
  1  9  1  0
  2  9  1  0
  3  9  1  0
  4 10  1  0
  5 10  1  0
  6 10  1  0
  7  8  2  0
  8  9  1  0
  8 10  1  0
M  END
>  <PUBCHEM_ATOM_DEF_STEREO_COUNT>  (2) 
0

>  <PUBCHEM_ATOM_UDEF_STEREO_COUNT>  (2) 
0

>  <PUBCHEM_BOND_DEF_STEREO_COUNT>  (2) 
0

>  <PUBCHEM_BOND_UDEF_STEREO_COUNT>  (2) 
0

>  <PUBCHEM_CACTVS_COMPLEXITY>  (2) 
124

>  <PUBCHEM_CACTVS_HBOND_ACCEPTOR>  (2) 
10

>  <PUBCHEM_CACTVS_HBOND_DONOR>  (2) 
3

>  <PUBCHEM_CACTVS_ROTATABLE_BOND>  (2) 
0

>  <PUBCHEM_CACTVS_SUBSKEYS>  (2) 
AAADcYBAOcAAAAAAAAAAAAAAAAAAAAAAAAAAAAAAAAAAAAAAAAAACwAACAAACAQAgBAAAAAAAAAIAIAQAAAAAAAAAAAAAAAAAAAAAAAAAAAAAAAAAAAAAAAAAAAAAAAAAAAAAAAAAAAAAAAAAAAAAAAAAA==

>  <PUBCHEM_CACTVS_TAUTO_COUNT>  (2) 
1

>  <PUBCHEM_CACTVS_TPSA>  (2) 
20.1

>  <PUBCHEM_COMPONENT_COUNT>  (2) 
4

>  <PUBCHEM_COMPOUND_CANONICALIZED>  (2) 
1

>  <PUBCHEM_COMPOUND_CID>  (2) 
36719

>  <PUBCHEM_COORDINATE_TYPE>  (2) 
1
5
255

>  <PUBCHEM_EXACT_MASS>  (2) 
220.017028

>  <PUBCHEM_HEAVY_ATOM_COUNT>  (2) 
13

>  <PUBCHEM_ISOTOPIC_ATOM_COUNT>  (2) 
0

>  <PUBCHEM_IUPAC_CAS_NAME>  (2) 
1,1,1,3,3,3-hexafluoro-2-propanone;trihydrate

>  <PUBCHEM_IUPAC_INCHI>  (2) 
InChI=1S/C3F6O.3H2O/c4-2(5,6)1(10)3(7,8)9;;;/h;3*1H2

>  <PUBCHEM_IUPAC_INCHIKEY>  (2) 
SNZAEUWCEHDROX-UHFFFAOYSA-N

>  <PUBCHEM_IUPAC_NAME>  (2) 
1,1,1,3,3,3-hexafluoropropan-2-one;trihydrate

>  <PUBCHEM_IUPAC_OPENEYE_NAME>  (2) 
1,1,1,3,3,3-hexafluoropropan-2-one;trihydrate

>  <PUBCHEM_IUPAC_SYSTEMATIC_NAME>  (2) 
1,1,1,3,3,3-hexakis(fluoranyl)propan-2-one;trihydrate

>  <PUBCHEM_IUPAC_TRADITIONAL_NAME>  (2) 
1,1,1,3,3,3-hexafluoroacetone;trihydrate

>  <PUBCHEM_MOLECULAR_FORMULA>  (2) 
C3H6F6O4

>  <PUBCHEM_MOLECULAR_WEIGHT>  (2) 
220.067759

>  <PUBCHEM_MONOISOTOPIC_WEIGHT>  (2) 
220.017028

>  <PUBCHEM_OPENEYE_CAN_SMILES>  (2) 
C(=O)(C(F)(F)F)C(F)(F)F.O.O.O

>  <PUBCHEM_OPENEYE_ISO_SMILES>  (2) 
C(=O)(C(F)(F)F)C(F)(F)F.O.O.O

>  <PUBCHEM_TOTAL_CHARGE>  (2) 
0

$$$$
161448
     RDKit          3D

 21 23  0  0  0  0  0  0  0  0999 V2000
    7.0010    6.6200    0.0000 N   0  0  0  0  0  0  0  0  0  0  0  0
    8.7331    7.6200    0.0000 N   0  0  0  0  0  0  0  0  0  0  0  0
    6.1350    6.1200    0.0000 C   0  0  0  0  0  0  0  0  0  0  0  0
    7.8671    6.1200    0.0000 C   0  0  0  0  0  0  0  0  0  0  0  0
    7.0010    7.6200    0.0000 C   0  0  0  0  0  0  0  0  0  0  0  0
    8.7331    6.6200    0.0000 C   0  0  0  0  0  0  0  0  0  0  0  0
    7.8671    8.1200    0.0000 C   0  0  0  0  0  0  0  0  0  0  0  0
    6.1350    5.1200    0.0000 C   0  0  0  0  0  0  0  0  0  0  0  0
    5.2690    6.6200    0.0000 C   0  0  0  0  0  0  0  0  0  0  0  0
    9.5991    8.1200    0.0000 C   0  0  0  0  0  0  0  0  0  0  0  0
    5.2690    4.6200    0.0000 C   0  0  0  0  0  0  0  0  0  0  0  0
    7.0010    4.6200    0.0000 C   0  0  0  0  0  0  0  0  0  0  0  0
    5.2690    7.6200    0.0000 C   0  0  0  0  0  0  0  0  0  0  0  0
    4.4030    6.1200    0.0000 C   0  0  0  0  0  0  0  0  0  0  0  0
    5.2690    3.6200    0.0000 C   0  0  0  0  0  0  0  0  0  0  0  0
    4.4030    5.1200    0.0000 C   0  0  0  0  0  0  0  0  0  0  0  0
    7.0010    3.6200    0.0000 C   0  0  0  0  0  0  0  0  0  0  0  0
    4.4030    8.1200    0.0000 C   0  0  0  0  0  0  0  0  0  0  0  0
    3.5369    6.6200    0.0000 C   0  0  0  0  0  0  0  0  0  0  0  0
    6.1350    3.1200    0.0000 C   0  0  0  0  0  0  0  0  0  0  0  0
    3.5369    7.6200    0.0000 C   0  0  0  0  0  0  0  0  0  0  0  0
  1  3  1  0
  1  4  1  0
  1  5  1  0
  2  6  1  0
  2  7  1  0
  2 10  1  0
  3  8  1  0
  3  9  1  0
  4  6  1  0
  5  7  1  0
  8 11  2  0
  8 12  1  0
  9 13  2  0
  9 14  1  0
 11 15  1  0
 11 16  1  0
 12 17  2  0
 13 18  1  0
 14 19  2  0
 15 20  2  0
 17 20  1  0
 18 21  2  0
 19 21  1  0
M  END
>  <PUBCHEM_ATOM_DEF_STEREO_COUNT>  (3) 
0

>  <PUBCHEM_ATOM_UDEF_STEREO_COUNT>  (3) 
1

>  <PUBCHEM_BONDANNOTATIONS>  (3) 
10  13  8
10  14  8
11  15  8
11  16  8
13  17  8
14  19  8
15  20  8
16  21  8
17  22  8
19  22  8
20  23  8
21  23  8
5  11  3

>  <PUBCHEM_BOND_DEF_STEREO_COUNT>  (3) 
0

>  <PUBCHEM_BOND_UDEF_STEREO_COUNT>  (3) 
0

>  <PUBCHEM_CACTVS_COMPLEXITY>  (3) 
303

>  <PUBCHEM_CACTVS_HBOND_ACCEPTOR>  (3) 
2

>  <PUBCHEM_CACTVS_HBOND_DONOR>  (3) 
2

>  <PUBCHEM_CACTVS_ROTATABLE_BOND>  (3) 
3

>  <PUBCHEM_CACTVS_SUBSKEYS>  (3) 
AAADceB7AAAGAAAAAAAAAAAAAAAAAAAAAAA8YIAAAAAAAAABQAAAHAAAAAAADCjBGAQyAIMAAACAAiBCAACCAAAgAAAIiAAIBIgIYCKAkRGUIAhggACIiAcQgMAOgAAAAAAQAAAAAAAAACAAAAAAAAAAAA==

>  <PUBCHEM_CACTVS_TAUTO_COUNT>  (3) 
1

>  <PUBCHEM_CACTVS_TPSA>  (3) 
6.5

>  <PUBCHEM_COMPONENT_COUNT>  (3) 
3

>  <PUBCHEM_COMPOUND_CANONICALIZED>  (3) 
1

>  <PUBCHEM_COMPOUND_CID>  (3) 
161448

>  <PUBCHEM_COORDINATE_TYPE>  (3) 
1
5
255

>  <PUBCHEM_EXACT_MASS>  (3) 
352.147304

>  <PUBCHEM_HEAVY_ATOM_COUNT>  (3) 
23

>  <PUBCHEM_ISOTOPIC_ATOM_COUNT>  (3) 
0

>  <PUBCHEM_IUPAC_CAS_NAME>  (3) 
1-methyl-4-[(2-methylphenyl)-phenylmethyl]piperazine;dihydrochloride

>  <PUBCHEM_IUPAC_INCHI>  (3) 
InChI=1S/C19H24N2.2ClH/c1-16-8-6-7-11-18(16)19(17-9-4-3-5-10-17)21-14-12-20(2)13-15-21;;/h3-11,19H,12-15H2,1-2H3;2*1H

>  <PUBCHEM_IUPAC_INCHIKEY>  (3) 
MRQPVLQWGKTNHT-UHFFFAOYSA-N

>  <PUBCHEM_IUPAC_NAME>  (3) 
1-methyl-4-[(2-methylphenyl)-phenylmethyl]piperazine;dihydrochloride

>  <PUBCHEM_IUPAC_OPENEYE_NAME>  (3) 
1-methyl-4-[o-tolyl(phenyl)methyl]piperazine;dihydrochloride

>  <PUBCHEM_IUPAC_SYSTEMATIC_NAME>  (3) 
1-methyl-4-[(2-methylphenyl)-phenyl-methyl]piperazine;dihydrochloride

>  <PUBCHEM_IUPAC_TRADITIONAL_NAME>  (3) 
1-methyl-4-[o-tolyl(phenyl)methyl]piperazine;dihydrochloride

>  <PUBCHEM_MOLECULAR_FORMULA>  (3) 
C19H26Cl2N2

>  <PUBCHEM_MOLECULAR_WEIGHT>  (3) 
353.32914

>  <PUBCHEM_MONOISOTOPIC_WEIGHT>  (3) 
352.147304

>  <PUBCHEM_OPENEYE_CAN_SMILES>  (3) 
CC1=CC=CC=C1C(C2=CC=CC=C2)N3CCN(CC3)C.Cl.Cl

>  <PUBCHEM_OPENEYE_ISO_SMILES>  (3) 
CC1=CC=CC=C1C(C2=CC=CC=C2)N3CCN(CC3)C.Cl.Cl

>  <PUBCHEM_TOTAL_CHARGE>  (3) 
0

$$$$
23681045
     RDKit          3D

  7  6  0  0  0  0  0  0  0  0999 V2000
    2.0000   -0.8170    0.0000 Cl  0  0  0  0  0  0  0  0  0  0  0  0
    2.3660    0.5490    0.0000 Cl  0  0  0  0  0  0  0  0  0  0  0  0
    3.3660   -1.1830    0.0000 Cl  0  0  0  0  0  0  0  0  0  0  0  0
    4.5981   -0.3170    0.0000 O   0  0  0  0  0  0  0  0  0  0  0  0
    3.7320    1.1830    0.0000 O   0  0  0  0  0  0  0  0  0  0  0  0
    2.8660   -0.3170    0.0000 C   0  0  0  0  0  0  0  0  0  0  0  0
    3.7320    0.1830    0.0000 C   0  0  0  0  0  0  0  0  0  0  0  0
  1  6  1  0
  2  6  1  0
  3  6  1  0
  4  7  1  0
  5  7  2  0
  6  7  1  0
M  CHG  1   4  -1
M  END
>  <PUBCHEM_ATOM_DEF_STEREO_COUNT>  (4) 
0

>  <PUBCHEM_ATOM_UDEF_STEREO_COUNT>  (4) 
0

>  <PUBCHEM_BOND_DEF_STEREO_COUNT>  (4) 
0

>  <PUBCHEM_BOND_UDEF_STEREO_COUNT>  (4) 
0

>  <PUBCHEM_CACTVS_COMPLEXITY>  (4) 
87.8

>  <PUBCHEM_CACTVS_HBOND_ACCEPTOR>  (4) 
2

>  <PUBCHEM_CACTVS_HBOND_DONOR>  (4) 
0

>  <PUBCHEM_CACTVS_ROTATABLE_BOND>  (4) 
0

>  <PUBCHEM_CACTVS_SUBSKEYS>  (4) 
AAADcQBAMCAGAAAAAAAAAAAAAAAAAAAAAAAAAAAAAAAAAAAAAAAACgIAAAAAAAIAgIAACAAAAAAIAACQCAAAAAAAAAAAAAAAAQBAAAAAAAAAAAAAAAAAAAAAAAAAAAAAAAAAAAAAAAAAAAAAAAAAAAAAAA==

>  <PUBCHEM_CACTVS_TAUTO_COUNT>  (4) 
1

>  <PUBCHEM_CACTVS_TPSA>  (4) 
40.1

>  <PUBCHEM_COMPONENT_COUNT>  (4) 
2

>  <PUBCHEM_COMPOUND_CANONICALIZED>  (4) 
1

>  <PUBCHEM_COMPOUND_CID>  (4) 
23681045

>  <PUBCHEM_COORDINATE_TYPE>  (4) 
1
5
255

>  <PUBCHEM_EXACT_MASS>  (4) 
183.886157

>  <PUBCHEM_HEAVY_ATOM_COUNT>  (4) 
8

>  <PUBCHEM_ISOTOPIC_ATOM_COUNT>  (4) 
0

>  <PUBCHEM_IUPAC_CAS_NAME>  (4) 
sodium;2,2,2-trichloroacetate

>  <PUBCHEM_IUPAC_INCHI>  (4) 
InChI=1S/C2HCl3O2.Na/c3-2(4,5)1(6)7;/h(H,6,7);/q;+1/p-1

>  <PUBCHEM_IUPAC_INCHIKEY>  (4) 
SAQSTQBVENFSKT-UHFFFAOYSA-M

>  <PUBCHEM_IUPAC_NAME>  (4) 
sodium;2,2,2-trichloroacetate

>  <PUBCHEM_IUPAC_OPENEYE_NAME>  (4) 
sodium;2,2,2-trichloroacetate

>  <PUBCHEM_IUPAC_SYSTEMATIC_NAME>  (4) 
sodium;2,2,2-tris(chloranyl)ethanoate

>  <PUBCHEM_IUPAC_TRADITIONAL_NAME>  (4) 
sodium;2,2,2-trichloroacetate

>  <PUBCHEM_MOLECULAR_FORMULA>  (4) 
C2Cl3NaO2

>  <PUBCHEM_MOLECULAR_WEIGHT>  (4) 
185.368969

>  <PUBCHEM_MONOISOTOPIC_WEIGHT>  (4) 
183.886157

>  <PUBCHEM_NONSTANDARDBOND>  (4) 
4  5  7

>  <PUBCHEM_OPENEYE_CAN_SMILES>  (4) 
C(=O)(C(Cl)(Cl)Cl)[O-].[Na+]

>  <PUBCHEM_OPENEYE_ISO_SMILES>  (4) 
C(=O)(C(Cl)(Cl)Cl)[O-].[Na+]

>  <PUBCHEM_TOTAL_CHARGE>  (4) 
0

$$$$
11954258
     RDKit          2D

 45 46  0  0  0  0  0  0  0  0999 V2000
    4.8671    0.6546    0.0000 S   0  0  0  0  0  0  0  0  0  0  0  0
    8.3972    2.6788    0.0000 S   0  0  0  0  0  0  0  0  0  0  0  0
    5.7655   10.0197    0.0000 O   0  0  0  0  0  0  0  0  0  0  0  0
    5.7655   14.8478    0.0000 O   0  0  0  0  0  0  0  0  0  0  0  0
    7.4976   15.8478    0.0000 O   0  0  0  0  0  0  0  0  0  0  0  0
    7.4976   11.0197    0.0000 O   0  0  0  0  0  0  0  0  0  0  0  0
    3.1674   16.3478    0.0000 O   0  0  0  0  0  0  0  0  0  0  0  0
    3.1674   11.5197    0.0000 O   0  0  0  0  0  0  0  0  0  0  0  0
    6.6315   12.5197    0.0000 O   0  0  0  0  0  0  0  0  0  0  0  0
    6.6315   17.3478    0.0000 O   0  0  0  0  0  0  0  0  0  0  0  0
    4.0334   14.8478    0.0000 O   0  0  0  0  0  0  0  0  0  0  0  0
    4.0334   10.0197    0.0000 O   0  0  0  0  0  0  0  0  0  0  0  0
    3.1350    5.6546    0.0000 N   0  0  0  0  0  0  0  0  0  0  0  0
    1.4030    6.6546    0.0000 N   0  0  0  0  0  0  0  0  0  0  0  0
    4.8671    2.6546    0.0000 N   0  0  0  0  0  0  0  0  0  0  0  0
    3.1350    6.6546    0.0000 C   0  0  0  0  0  0  0  0  0  0  0  0
    2.2690    5.1546    0.0000 C   0  0  0  0  0  0  0  0  0  0  0  0
    1.4030    5.6546    0.0000 C   0  0  0  0  0  0  0  0  0  0  0  0
    2.2690    7.1546    0.0000 C   0  0  0  0  0  0  0  0  0  0  0  0
    4.0010    5.1546    0.0000 C   0  0  0  0  0  0  0  0  0  0  0  0
    4.0010    4.1546    0.0000 C   0  0  0  0  0  0  0  0  0  0  0  0
    4.8671    3.6546    0.0000 C   0  0  0  0  0  0  0  0  0  0  0  0
    0.5369    7.1546    0.0000 C   0  0  0  0  0  0  0  0  0  0  0  0
    5.7331    2.1546    0.0000 C   0  0  0  0  0  0  0  0  0  0  0  0
    4.0010    2.1546    0.0000 C   0  0  0  0  0  0  0  0  0  0  0  0
    5.7331    1.1546    0.0000 C   0  0  0  0  0  0  0  0  0  0  0  0
    4.0010    1.1546    0.0000 C   0  0  0  0  0  0  0  0  0  0  0  0
    6.6270    2.6893    0.0000 C   0  0  0  0  0  0  0  0  0  0  0  0
    3.1071    2.6893    0.0000 C   0  0  0  0  0  0  0  0  0  0  0  0
    6.6270    0.6200    0.0000 C   0  0  0  0  0  0  0  0  0  0  0  0
    3.1071    0.6200    0.0000 C   0  0  0  0  0  0  0  0  0  0  0  0
    7.5331    2.1754    0.0000 C   0  0  0  0  0  0  0  0  0  0  0  0
    2.2010    2.1754    0.0000 C   0  0  0  0  0  0  0  0  0  0  0  0
    7.5331    1.1338    0.0000 C   0  0  0  0  0  0  0  0  0  0  0  0
    2.2010    1.1338    0.0000 C   0  0  0  0  0  0  0  0  0  0  0  0
    9.2651    2.1821    0.0000 C   0  0  0  0  0  0  0  0  0  0  0  0
   10.1292    2.6854    0.0000 C   0  0  0  0  0  0  0  0  0  0  0  0
    5.7655   11.0197    0.0000 C   0  0  0  0  0  0  0  0  0  0  0  0
    5.7655   15.8478    0.0000 C   0  0  0  0  0  0  0  0  0  0  0  0
    4.8995   11.5197    0.0000 C   0  0  0  0  0  0  0  0  0  0  0  0
    4.8995   16.3478    0.0000 C   0  0  0  0  0  0  0  0  0  0  0  0
    6.6315   11.5197    0.0000 C   0  0  0  0  0  0  0  0  0  0  0  0
    6.6315   16.3478    0.0000 C   0  0  0  0  0  0  0  0  0  0  0  0
    4.0334   11.0197    0.0000 C   0  0  0  0  0  0  0  0  0  0  0  0
    4.0334   15.8478    0.0000 C   0  0  0  0  0  0  0  0  0  0  0  0
  1 26  1  0
  1 27  1  0
  2 32  1  0
  2 36  1  0
  3 38  1  0
  4 39  1  0
  5 43  1  0
  6 42  1  0
  7 45  1  0
  8 44  1  0
  9 42  2  0
 10 43  2  0
 11 45  2  0
 12 44  2  0
 13 16  1  0
 13 17  1  0
 13 20  1  0
 14 18  1  0
 14 19  1  0
 14 23  1  0
 15 22  1  0
 15 24  1  0
 15 25  1  0
 16 19  1  0
 17 18  1  0
 20 21  1  0
 21 22  1  0
 24 26  2  0
 24 28  1  0
 25 27  2  0
 25 29  1  0
 26 30  1  0
 27 31  1  0
 28 32  2  0
 29 33  2  0
 30 34  2  0
 31 35  2  0
 32 34  1  0
 33 35  1  0
 36 37  1  0
 38 40  1  0
 38 42  1  0
 39 41  1  0
 39 43  1  0
 40 44  1  0
 41 45  1  0
M  END
>  <PUBCHEM_ATOM_DEF_STEREO_COUNT>  (5) 
0

>  <PUBCHEM_ATOM_UDEF_STEREO_COUNT>  (5) 
2

>  <PUBCHEM_BONDANNOTATIONS>  (5) 
24  26  8
24  28  8
25  27  8
25  29  8
26  30  8
27  31  8
28  32  8
29  33  8
38  3  3
30  34  8
31  35  8
32  34  8
33  35  8
39  4  3

>  <PUBCHEM_BOND_DEF_STEREO_COUNT>  (5) 
0

>  <PUBCHEM_BOND_UDEF_STEREO_COUNT>  (5) 
0

>  <PUBCHEM_CACTVS_COMPLEXITY>  (5) 
584

>  <PUBCHEM_CACTVS_HBOND_ACCEPTOR>  (5) 
15

>  <PUBCHEM_CACTVS_HBOND_DONOR>  (5) 
6

>  <PUBCHEM_CACTVS_ROTATABLE_BOND>  (5) 
12

>  <PUBCHEM_CACTVS_SUBSKEYS>  (5) 
AAADcfB7PABgAAAAAAAAAAAAAAAAAAAAAAA8eIEAAAAAAACxQAAAHgQACAAACBzl0AayyYMAAgiIACTSSAKCAAAhChAIiB1IZIgJcHbg0ZGUYAxloADpyAdTAAAAAAgAACAAAQAAEAAAQAACAAAAAAAAAA==

>  <PUBCHEM_CACTVS_TAUTO_COUNT>  (5) 
1

>  <PUBCHEM_CACTVS_TPSA>  (5) 
250

>  <PUBCHEM_COMPONENT_COUNT>  (5) 
3

>  <PUBCHEM_COMPOUND_CANONICALIZED>  (5) 
1

>  <PUBCHEM_COMPOUND_CID>  (5) 
11954258

>  <PUBCHEM_COORDINATE_TYPE>  (5) 
1
5
255

>  <PUBCHEM_EXACT_MASS>  (5) 
667.223337

>  <PUBCHEM_HEAVY_ATOM_COUNT>  (5) 
45

>  <PUBCHEM_ISOTOPIC_ATOM_COUNT>  (5) 
0

>  <PUBCHEM_IUPAC_CAS_NAME>  (5) 
2-(ethylthio)-10-[3-(4-methyl-1-piperazinyl)propyl]phenothiazine;2-hydroxybutanedioic acid

>  <PUBCHEM_IUPAC_INCHI>  (5) 
InChI=1S/C22H29N3S2.2C4H6O5/c1-3-26-18-9-10-22-20(17-18)25(19-7-4-5-8-21(19)27-22)12-6-11-24-15-13-23(2)14-16-24;2*5-2(4(8)9)1-3(6)7/h4-5,7-10,17H,3,6,11-16H2,1-2H3;2*2,5H,1H2,(H,6,7)(H,8,9)

>  <PUBCHEM_IUPAC_INCHIKEY>  (5) 
GTHHLZDYRHLACN-UHFFFAOYSA-N

>  <PUBCHEM_IUPAC_NAME>  (5) 
2-ethylsulfanyl-10-[3-(4-methylpiperazin-1-yl)propyl]phenothiazine;2-hydroxybutanedioic acid

>  <PUBCHEM_IUPAC_OPENEYE_NAME>  (5) 
2-ethylsulfanyl-10-[3-(4-methylpiperazin-1-yl)propyl]phenothiazine;2-hydroxybutanedioic acid

>  <PUBCHEM_IUPAC_SYSTEMATIC_NAME>  (5) 
2-ethylsulfanyl-10-[3-(4-methylpiperazin-1-yl)propyl]phenothiazine;2-oxidanylbutanedioic acid

>  <PUBCHEM_IUPAC_TRADITIONAL_NAME>  (5) 
2-(ethylthio)-10-[3-(4-methylpiperazino)propyl]phenothiazine;malic acid

>  <PUBCHEM_MOLECULAR_FORMULA>  (5) 
C30H41N3O10S2

>  <PUBCHEM_MOLECULAR_WEIGHT>  (5) 
667.79064

>  <PUBCHEM_MONOISOTOPIC_WEIGHT>  (5) 
667.223337

>  <PUBCHEM_OPENEYE_CAN_SMILES>  (5) 
CCSC1=CC2=C(C=C1)SC3=CC=CC=C3N2CCCN4CCN(CC4)C.C(C(C(=O)O)O)C(=O)O.C(C(C(=O)O)O)C(=O)O

>  <PUBCHEM_OPENEYE_ISO_SMILES>  (5) 
CCSC1=CC2=C(C=C1)SC3=CC=CC=C3N2CCCN4CCN(CC4)C.C(C(C(=O)O)O)C(=O)O.C(C(C(=O)O)O)C(=O)O

>  <PUBCHEM_TOTAL_CHARGE>  (5) 
0

$$$$
