91657
  -OEChem-04291521452D

 33 32  0     0  0  0  0  0  0999 V2000
    0.0000    7.1200    0.0000 Cl  0  0  0  0  0  0  0  0  0  0  0  0
    2.7996    9.2026    0.0000 Cl  0  0  0  0  0  0  0  0  0  0  0  0
    0.8660    3.6200    0.0000 O   0  0  0  0  0  0  0  0  0  0  0  0
    2.5981    6.6200    0.0000 O   0  0  0  0  0  0  0  0  0  0  0  0
    2.5981    3.6200    0.0000 N   0  0  0  0  0  0  0  0  0  0  0  0
    1.7320    5.1200    0.0000 N   0  0  0  0  0  0  0  0  0  0  0  0
    4.3301    0.6200    0.0000 N   0  0  0  0  0  0  0  0  0  0  0  0
    5.1962    2.1200    0.0000 N   0  0  0  0  0  0  0  0  0  0  0  0
    2.5981    0.6200    0.0000 N   0  0  0  0  0  0  0  0  0  0  0  0
    2.5981    5.6200    0.0000 N   0  0  0  0  0  0  0  0  0  0  0  0
    2.5981    2.6200    0.0000 C   0  0  0  0  0  0  0  0  0  0  0  0
    3.4641    2.1200    0.0000 C   0  0  0  0  0  0  0  0  0  0  0  0
    3.4641    1.1200    0.0000 C   0  0  0  0  0  0  0  0  0  0  0  0
    0.8660    5.6200    0.0000 C   0  0  0  0  0  0  0  0  0  0  0  0
    1.7320    4.1200    0.0000 C   0  0  0  0  0  0  0  0  0  0  0  0
    4.3301    2.6200    0.0000 C   0  0  0  0  0  0  0  0  0  0  0  0
    0.8660    6.6200    0.0000 C   0  0  0  0  0  0  0  0  0  0  0  0
    5.1962    1.1200    0.0000 C   0  0  0  0  0  0  0  0  0  0  0  0
    6.0622    0.6200    0.0000 C   0  0  0  0  0  0  0  0  0  0  0  0
    1.9875    2.7277    0.0000 H   0  0  0  0  0  0  0  0  0  0  0  0
    2.3860    2.0374    0.0000 H   0  0  0  0  0  0  0  0  0  0  0  0
    3.1350    3.9300    0.0000 H   0  0  0  0  0  0  0  0  0  0  0  0
    0.2554    5.7277    0.0000 H   0  0  0  0  0  0  0  0  0  0  0  0
    0.6540    5.0374    0.0000 H   0  0  0  0  0  0  0  0  0  0  0  0
    4.3301    3.2400    0.0000 H   0  0  0  0  0  0  0  0  0  0  0  0
    1.4766    6.5123    0.0000 H   0  0  0  0  0  0  0  0  0  0  0  0
    1.0781    7.2026    0.0000 H   0  0  0  0  0  0  0  0  0  0  0  0
    2.5981    0.0000    0.0000 H   0  0  0  0  0  0  0  0  0  0  0  0
    2.0611    0.9300    0.0000 H   0  0  0  0  0  0  0  0  0  0  0  0
    5.7522    0.0831    0.0000 H   0  0  0  0  0  0  0  0  0  0  0  0
    6.5991    0.3100    0.0000 H   0  0  0  0  0  0  0  0  0  0  0  0
    6.3722    1.1569    0.0000 H   0  0  0  0  0  0  0  0  0  0  0  0
    3.7996    9.2026    0.0000 H   0  0  0  0  0  0  0  0  0  0  0  0
  1 17  1  0  0  0  0
  2 33  1  0  0  0  0
  3 15  2  0  0  0  0
  4 10  2  0  0  0  0
  5 11  1  0  0  0  0
  5 15  1  0  0  0  0
  5 22  1  0  0  0  0
  6 10  1  0  0  0  0
  6 14  1  0  0  0  0
  6 15  1  0  0  0  0
  7 13  2  0  0  0  0
  7 18  1  0  0  0  0
  8 16  1  0  0  0  0
  8 18  2  0  0  0  0
  9 13  1  0  0  0  0
  9 28  1  0  0  0  0
  9 29  1  0  0  0  0
 11 12  1  0  0  0  0
 11 20  1  0  0  0  0
 11 21  1  0  0  0  0
 12 13  1  0  0  0  0
 12 16  2  0  0  0  0
 14 17  1  0  0  0  0
 14 23  1  0  0  0  0
 14 24  1  0  0  0  0
 16 25  1  0  0  0  0
 17 26  1  0  0  0  0
 17 27  1  0  0  0  0
 18 19  1  0  0  0  0
 19 30  1  0  0  0  0
 19 31  1  0  0  0  0
 19 32  1  0  0  0  0
M  END
> <PUBCHEM_COMPOUND_CID>
91657

> <PUBCHEM_COMPOUND_CANONICALIZED>
1

> <PUBCHEM_CACTVS_COMPLEXITY>
292

> <PUBCHEM_CACTVS_HBOND_ACCEPTOR>
6

> <PUBCHEM_CACTVS_HBOND_DONOR>
3

> <PUBCHEM_CACTVS_ROTATABLE_BOND>
4

> <PUBCHEM_CACTVS_SUBSKEYS>
AAADccBzsAAGAAAAAAAAAAAAAAAAAAAAAAAsAAAAAAAAAAABgAAAHgIcAAAADAPBG0QvsJbIEACpAhJndACAgCkRAKAXUKA4RBCACIBASUBEBAgYBgLAACAAAAAAAAAAAAAAAAAAAAAAAAAAAAAAAAAAAA==

> <PUBCHEM_IUPAC_OPENEYE_NAME>
3-[(4-amino-2-methyl-pyrimidin-5-yl)methyl]-1-(2-chloroethyl)-1-nitroso-urea;hydrochloride

> <PUBCHEM_IUPAC_CAS_NAME>
3-[(4-amino-2-methyl-5-pyrimidinyl)methyl]-1-(2-chloroethyl)-1-nitrosourea;hydrochloride

> <PUBCHEM_IUPAC_NAME>
3-[(4-amino-2-methylpyrimidin-5-yl)methyl]-1-(2-chloroethyl)-1-nitrosourea;hydrochloride

> <PUBCHEM_IUPAC_SYSTEMATIC_NAME>
3-[(4-azanyl-2-methyl-pyrimidin-5-yl)methyl]-1-(2-chloroethyl)-1-nitroso-urea;hydrochloride

> <PUBCHEM_IUPAC_TRADITIONAL_NAME>
3-[(4-amino-2-methyl-pyrimidin-5-yl)methyl]-1-(2-chloroethyl)-1-nitroso-urea;hydrochloride

> <PUBCHEM_IUPAC_INCHI>
InChI=1S/C9H13ClN6O2.ClH/c1-6-12-4-7(8(11)14-6)5-13-9(17)16(15-18)3-2-10;/h4H,2-3,5H2,1H3,(H,13,17)(H2,11,12,14);1H

> <PUBCHEM_IUPAC_INCHIKEY>
KPMKNHGAPDCYLP-UHFFFAOYSA-N

> <PUBCHEM_EXACT_MASS>
308.055529

> <PUBCHEM_MOLECULAR_FORMULA>
C9H14Cl2N6O2

> <PUBCHEM_MOLECULAR_WEIGHT>
309.15246

> <PUBCHEM_OPENEYE_CAN_SMILES>
CC1=NC=C(C(=N1)N)CNC(=O)N(CCCl)N=O.Cl

> <PUBCHEM_OPENEYE_ISO_SMILES>
CC1=NC=C(C(=N1)N)CNC(=O)N(CCCl)N=O.Cl

> <PUBCHEM_CACTVS_TPSA>
114

> <PUBCHEM_MONOISOTOPIC_WEIGHT>
308.055529

> <PUBCHEM_TOTAL_CHARGE>
0

> <PUBCHEM_HEAVY_ATOM_COUNT>
19

> <PUBCHEM_ATOM_DEF_STEREO_COUNT>
0

> <PUBCHEM_ATOM_UDEF_STEREO_COUNT>
0

> <PUBCHEM_BOND_DEF_STEREO_COUNT>
0

> <PUBCHEM_BOND_UDEF_STEREO_COUNT>
0

> <PUBCHEM_ISOTOPIC_ATOM_COUNT>
0

> <PUBCHEM_COMPONENT_COUNT>
2

> <PUBCHEM_CACTVS_TAUTO_COUNT>
6

> <PUBCHEM_COORDINATE_TYPE>
1
5
255

> <PUBCHEM_BONDANNOTATIONS>
12  13  8
12  16  8
7  13  8
7  18  8
8  16  8
8  18  8

$$$$
36719
  -OEChem-04291521462D

 19 15  0     0  0  0  0  0  0999 V2000
    6.5380    2.0000    0.0000 F   0  0  0  0  0  0  0  0  0  0  0  0
    6.1720    0.6340    0.0000 F   0  0  0  0  0  0  0  0  0  0  0  0
    5.1720    2.3660    0.0000 F   0  0  0  0  0  0  0  0  0  0  0  0
    3.0739    2.0000    0.0000 F   0  0  0  0  0  0  0  0  0  0  0  0
    3.4399    0.6340    0.0000 F   0  0  0  0  0  0  0  0  0  0  0  0
    4.4399    2.3660    0.0000 F   0  0  0  0  0  0  0  0  0  0  0  0
    4.8059    0.0000    0.0000 O   0  0  0  0  0  0  0  0  0  0  0  0
    0.5369    3.4330    0.0000 O   0  0  0  0  0  0  0  0  0  0  0  0
    4.8059    4.3660    0.0000 O   0  0  0  0  0  0  0  0  0  0  0  0
    4.8059    6.8660    0.0000 O   0  0  0  0  0  0  0  0  0  0  0  0
    4.8059    1.0000    0.0000 C   0  0  0  0  0  0  0  0  0  0  0  0
    5.6720    1.5000    0.0000 C   0  0  0  0  0  0  0  0  0  0  0  0
    3.9399    1.5000    0.0000 C   0  0  0  0  0  0  0  0  0  0  0  0
    5.3429    7.1760    0.0000 H   0  0  0  0  0  0  0  0  0  0  0  0
    4.2690    7.1760    0.0000 H   0  0  0  0  0  0  0  0  0  0  0  0
    5.3429    4.6760    0.0000 H   0  0  0  0  0  0  0  0  0  0  0  0
    4.2690    4.6760    0.0000 H   0  0  0  0  0  0  0  0  0  0  0  0
    1.0739    3.7430    0.0000 H   0  0  0  0  0  0  0  0  0  0  0  0
    0.0000    3.7430    0.0000 H   0  0  0  0  0  0  0  0  0  0  0  0
  1 12  1  0  0  0  0
  2 12  1  0  0  0  0
  3 12  1  0  0  0  0
  4 13  1  0  0  0  0
  5 13  1  0  0  0  0
  6 13  1  0  0  0  0
  7 11  2  0  0  0  0
  8 18  1  0  0  0  0
  8 19  1  0  0  0  0
  9 16  1  0  0  0  0
  9 17  1  0  0  0  0
 10 14  1  0  0  0  0
 10 15  1  0  0  0  0
 11 12  1  0  0  0  0
 11 13  1  0  0  0  0
M  END
> <PUBCHEM_COMPOUND_CID>
36719

> <PUBCHEM_COMPOUND_CANONICALIZED>
1

> <PUBCHEM_CACTVS_COMPLEXITY>
124

> <PUBCHEM_CACTVS_HBOND_ACCEPTOR>
10

> <PUBCHEM_CACTVS_HBOND_DONOR>
3

> <PUBCHEM_CACTVS_ROTATABLE_BOND>
0

> <PUBCHEM_CACTVS_SUBSKEYS>
AAADcYBAOcAAAAAAAAAAAAAAAAAAAAAAAAAAAAAAAAAAAAAAAAAACwAACAAACAQAgBAAAAAAAAAIAIAQAAAAAAAAAAAAAAAAAAAAAAAAAAAAAAAAAAAAAAAAAAAAAAAAAAAAAAAAAAAAAAAAAAAAAAAAAA==

> <PUBCHEM_IUPAC_OPENEYE_NAME>
1,1,1,3,3,3-hexafluoropropan-2-one;trihydrate

> <PUBCHEM_IUPAC_CAS_NAME>
1,1,1,3,3,3-hexafluoro-2-propanone;trihydrate

> <PUBCHEM_IUPAC_NAME>
1,1,1,3,3,3-hexafluoropropan-2-one;trihydrate

> <PUBCHEM_IUPAC_SYSTEMATIC_NAME>
1,1,1,3,3,3-hexakis(fluoranyl)propan-2-one;trihydrate

> <PUBCHEM_IUPAC_TRADITIONAL_NAME>
1,1,1,3,3,3-hexafluoroacetone;trihydrate

> <PUBCHEM_IUPAC_INCHI>
InChI=1S/C3F6O.3H2O/c4-2(5,6)1(10)3(7,8)9;;;/h;3*1H2

> <PUBCHEM_IUPAC_INCHIKEY>
SNZAEUWCEHDROX-UHFFFAOYSA-N

> <PUBCHEM_EXACT_MASS>
220.017028

> <PUBCHEM_MOLECULAR_FORMULA>
C3H6F6O4

> <PUBCHEM_MOLECULAR_WEIGHT>
220.067759

> <PUBCHEM_OPENEYE_CAN_SMILES>
C(=O)(C(F)(F)F)C(F)(F)F.O.O.O

> <PUBCHEM_OPENEYE_ISO_SMILES>
C(=O)(C(F)(F)F)C(F)(F)F.O.O.O

> <PUBCHEM_CACTVS_TPSA>
20.1

> <PUBCHEM_MONOISOTOPIC_WEIGHT>
220.017028

> <PUBCHEM_TOTAL_CHARGE>
0

> <PUBCHEM_HEAVY_ATOM_COUNT>
13

> <PUBCHEM_ATOM_DEF_STEREO_COUNT>
0

> <PUBCHEM_ATOM_UDEF_STEREO_COUNT>
0

> <PUBCHEM_BOND_DEF_STEREO_COUNT>
0

> <PUBCHEM_BOND_UDEF_STEREO_COUNT>
0

> <PUBCHEM_ISOTOPIC_ATOM_COUNT>
0

> <PUBCHEM_COMPONENT_COUNT>
4

> <PUBCHEM_CACTVS_TAUTO_COUNT>
1

> <PUBCHEM_COORDINATE_TYPE>
1
5
255

$$$$
161448
  -OEChem-04291521472D

 49 49  0     1  0  0  0  0  0999 V2000
    0.0000    4.1200    0.0000 Cl  0  0  0  0  0  0  0  0  0  0  0  0
    6.0680    0.0000    0.0000 Cl  0  0  0  0  0  0  0  0  0  0  0  0
    7.0010    6.6200    0.0000 N   0  0  0  0  0  0  0  0  0  0  0  0
    8.7331    7.6200    0.0000 N   0  0  0  0  0  0  0  0  0  0  0  0
    6.1350    6.1200    0.0000 C   0  0  3  0  0  0  0  0  0  0  0  0
    7.8671    6.1200    0.0000 C   0  0  0  0  0  0  0  0  0  0  0  0
    7.0010    7.6200    0.0000 C   0  0  0  0  0  0  0  0  0  0  0  0
    8.7331    6.6200    0.0000 C   0  0  0  0  0  0  0  0  0  0  0  0
    7.8671    8.1200    0.0000 C   0  0  0  0  0  0  0  0  0  0  0  0
    6.1350    5.1200    0.0000 C   0  0  0  0  0  0  0  0  0  0  0  0
    5.2690    6.6200    0.0000 C   0  0  0  0  0  0  0  0  0  0  0  0
    9.5991    8.1200    0.0000 C   0  0  0  0  0  0  0  0  0  0  0  0
    5.2690    4.6200    0.0000 C   0  0  0  0  0  0  0  0  0  0  0  0
    7.0010    4.6200    0.0000 C   0  0  0  0  0  0  0  0  0  0  0  0
    5.2690    7.6200    0.0000 C   0  0  0  0  0  0  0  0  0  0  0  0
    4.4030    6.1200    0.0000 C   0  0  0  0  0  0  0  0  0  0  0  0
    5.2690    3.6200    0.0000 C   0  0  0  0  0  0  0  0  0  0  0  0
    4.4030    5.1200    0.0000 C   0  0  0  0  0  0  0  0  0  0  0  0
    7.0010    3.6200    0.0000 C   0  0  0  0  0  0  0  0  0  0  0  0
    4.4030    8.1200    0.0000 C   0  0  0  0  0  0  0  0  0  0  0  0
    3.5369    6.6200    0.0000 C   0  0  0  0  0  0  0  0  0  0  0  0
    6.1350    3.1200    0.0000 C   0  0  0  0  0  0  0  0  0  0  0  0
    3.5369    7.6200    0.0000 C   0  0  0  0  0  0  0  0  0  0  0  0
    5.5981    5.8100    0.0000 H   0  0  0  0  0  0  0  0  0  0  0  0
    7.4685    5.6450    0.0000 H   0  0  0  0  0  0  0  0  0  0  0  0
    8.2656    5.6450    0.0000 H   0  0  0  0  0  0  0  0  0  0  0  0
    6.7890    8.2026    0.0000 H   0  0  0  0  0  0  0  0  0  0  0  0
    6.3905    7.5123    0.0000 H   0  0  0  0  0  0  0  0  0  0  0  0
    8.9451    6.0374    0.0000 H   0  0  0  0  0  0  0  0  0  0  0  0
    9.3437    6.7277    0.0000 H   0  0  0  0  0  0  0  0  0  0  0  0
    8.2656    8.5950    0.0000 H   0  0  0  0  0  0  0  0  0  0  0  0
    7.4685    8.5950    0.0000 H   0  0  0  0  0  0  0  0  0  0  0  0
    9.9091    7.5831    0.0000 H   0  0  0  0  0  0  0  0  0  0  0  0
   10.1360    8.4300    0.0000 H   0  0  0  0  0  0  0  0  0  0  0  0
    9.2891    8.6569    0.0000 H   0  0  0  0  0  0  0  0  0  0  0  0
    7.5380    4.9300    0.0000 H   0  0  0  0  0  0  0  0  0  0  0  0
    5.8059    7.9300    0.0000 H   0  0  0  0  0  0  0  0  0  0  0  0
    4.4030    5.5000    0.0000 H   0  0  0  0  0  0  0  0  0  0  0  0
    4.7320    3.3100    0.0000 H   0  0  0  0  0  0  0  0  0  0  0  0
    4.7130    5.6569    0.0000 H   0  0  0  0  0  0  0  0  0  0  0  0
    3.8660    5.4300    0.0000 H   0  0  0  0  0  0  0  0  0  0  0  0
    4.0930    4.5831    0.0000 H   0  0  0  0  0  0  0  0  0  0  0  0
    7.5380    3.3100    0.0000 H   0  0  0  0  0  0  0  0  0  0  0  0
    4.4030    8.7400    0.0000 H   0  0  0  0  0  0  0  0  0  0  0  0
    3.0000    6.3100    0.0000 H   0  0  0  0  0  0  0  0  0  0  0  0
    6.1350    2.5000    0.0000 H   0  0  0  0  0  0  0  0  0  0  0  0
    3.0000    7.9300    0.0000 H   0  0  0  0  0  0  0  0  0  0  0  0
    1.0000    4.1200    0.0000 H   0  0  0  0  0  0  0  0  0  0  0  0
    7.0680    0.0000    0.0000 H   0  0  0  0  0  0  0  0  0  0  0  0
  1 48  1  0  0  0  0
  2 49  1  0  0  0  0
  3  5  1  0  0  0  0
  3  6  1  0  0  0  0
  3  7  1  0  0  0  0
  4  8  1  0  0  0  0
  4  9  1  0  0  0  0
  4 12  1  0  0  0  0
  5 10  1  0  0  0  0
  5 11  1  0  0  0  0
  5 24  1  0  0  0  0
  6  8  1  0  0  0  0
  6 25  1  0  0  0  0
  6 26  1  0  0  0  0
  7  9  1  0  0  0  0
  7 27  1  0  0  0  0
  7 28  1  0  0  0  0
  8 29  1  0  0  0  0
  8 30  1  0  0  0  0
  9 31  1  0  0  0  0
  9 32  1  0  0  0  0
 10 13  1  0  0  0  0
 10 14  2  0  0  0  0
 11 15  2  0  0  0  0
 11 16  1  0  0  0  0
 12 33  1  0  0  0  0
 12 34  1  0  0  0  0
 12 35  1  0  0  0  0
 13 17  2  0  0  0  0
 13 18  1  0  0  0  0
 14 19  1  0  0  0  0
 14 36  1  0  0  0  0
 15 20  1  0  0  0  0
 15 37  1  0  0  0  0
 16 21  2  0  0  0  0
 16 38  1  0  0  0  0
 17 22  1  0  0  0  0
 17 39  1  0  0  0  0
 18 40  1  0  0  0  0
 18 41  1  0  0  0  0
 18 42  1  0  0  0  0
 19 22  2  0  0  0  0
 19 43  1  0  0  0  0
 20 23  2  0  0  0  0
 20 44  1  0  0  0  0
 21 23  1  0  0  0  0
 21 45  1  0  0  0  0
 22 46  1  0  0  0  0
 23 47  1  0  0  0  0
M  END
> <PUBCHEM_COMPOUND_CID>
161448

> <PUBCHEM_COMPOUND_CANONICALIZED>
1

> <PUBCHEM_CACTVS_COMPLEXITY>
303

> <PUBCHEM_CACTVS_HBOND_ACCEPTOR>
2

> <PUBCHEM_CACTVS_HBOND_DONOR>
2

> <PUBCHEM_CACTVS_ROTATABLE_BOND>
3

> <PUBCHEM_CACTVS_SUBSKEYS>
AAADceB7AAAGAAAAAAAAAAAAAAAAAAAAAAA8YIAAAAAAAAABQAAAHAAAAAAADCjBGAQyAIMAAACAAiBCAACCAAAgAAAIiAAIBIgIYCKAkRGUIAhggACIiAcQgMAOgAAAAAAQAAAAAAAAACAAAAAAAAAAAA==

> <PUBCHEM_IUPAC_OPENEYE_NAME>
1-methyl-4-[o-tolyl(phenyl)methyl]piperazine;dihydrochloride

> <PUBCHEM_IUPAC_CAS_NAME>
1-methyl-4-[(2-methylphenyl)-phenylmethyl]piperazine;dihydrochloride

> <PUBCHEM_IUPAC_NAME>
1-methyl-4-[(2-methylphenyl)-phenylmethyl]piperazine;dihydrochloride

> <PUBCHEM_IUPAC_SYSTEMATIC_NAME>
1-methyl-4-[(2-methylphenyl)-phenyl-methyl]piperazine;dihydrochloride

> <PUBCHEM_IUPAC_TRADITIONAL_NAME>
1-methyl-4-[o-tolyl(phenyl)methyl]piperazine;dihydrochloride

> <PUBCHEM_IUPAC_INCHI>
InChI=1S/C19H24N2.2ClH/c1-16-8-6-7-11-18(16)19(17-9-4-3-5-10-17)21-14-12-20(2)13-15-21;;/h3-11,19H,12-15H2,1-2H3;2*1H

> <PUBCHEM_IUPAC_INCHIKEY>
MRQPVLQWGKTNHT-UHFFFAOYSA-N

> <PUBCHEM_EXACT_MASS>
352.147304

> <PUBCHEM_MOLECULAR_FORMULA>
C19H26Cl2N2

> <PUBCHEM_MOLECULAR_WEIGHT>
353.32914

> <PUBCHEM_OPENEYE_CAN_SMILES>
CC1=CC=CC=C1C(C2=CC=CC=C2)N3CCN(CC3)C.Cl.Cl

> <PUBCHEM_OPENEYE_ISO_SMILES>
CC1=CC=CC=C1C(C2=CC=CC=C2)N3CCN(CC3)C.Cl.Cl

> <PUBCHEM_CACTVS_TPSA>
6.5

> <PUBCHEM_MONOISOTOPIC_WEIGHT>
352.147304

> <PUBCHEM_TOTAL_CHARGE>
0

> <PUBCHEM_HEAVY_ATOM_COUNT>
23

> <PUBCHEM_ATOM_DEF_STEREO_COUNT>
0

> <PUBCHEM_ATOM_UDEF_STEREO_COUNT>
1

> <PUBCHEM_BOND_DEF_STEREO_COUNT>
0

> <PUBCHEM_BOND_UDEF_STEREO_COUNT>
0

> <PUBCHEM_ISOTOPIC_ATOM_COUNT>
0

> <PUBCHEM_COMPONENT_COUNT>
3

> <PUBCHEM_CACTVS_TAUTO_COUNT>
1

> <PUBCHEM_COORDINATE_TYPE>
1
5
255

> <PUBCHEM_BONDANNOTATIONS>
10  13  8
10  14  8
11  15  8
11  16  8
13  17  8
14  19  8
15  20  8
16  21  8
17  22  8
19  22  8
20  23  8
21  23  8
5  11  3

$$$$
23681045
  -OEChem-04291521482D

  8  6  0     0  0  0  0  0  0999 V2000
    2.0000   -0.8170    0.0000 Cl  0  0  0  0  0  0  0  0  0  0  0  0
    2.3660    0.5490    0.0000 Cl  0  0  0  0  0  0  0  0  0  0  0  0
    3.3660   -1.1830    0.0000 Cl  0  0  0  0  0  0  0  0  0  0  0  0
    5.4641    0.1830    0.0000 Na  0  3  0  0  0  0  0  0  0  0  0  0
    4.5981   -0.3170    0.0000 O   0  5  0  0  0  0  0  0  0  0  0  0
    3.7320    1.1830    0.0000 O   0  0  0  0  0  0  0  0  0  0  0  0
    2.8660   -0.3170    0.0000 C   0  0  0  0  0  0  0  0  0  0  0  0
    3.7320    0.1830    0.0000 C   0  0  0  0  0  0  0  0  0  0  0  0
  1  7  1  0  0  0  0
  2  7  1  0  0  0  0
  3  7  1  0  0  0  0
  5  8  1  0  0  0  0
  6  8  2  0  0  0  0
  7  8  1  0  0  0  0
M  CHG  2   4   1   5  -1
M  END
> <PUBCHEM_COMPOUND_CID>
23681045

> <PUBCHEM_COMPOUND_CANONICALIZED>
1

> <PUBCHEM_CACTVS_COMPLEXITY>
87.8

> <PUBCHEM_CACTVS_HBOND_ACCEPTOR>
2

> <PUBCHEM_CACTVS_HBOND_DONOR>
0

> <PUBCHEM_CACTVS_ROTATABLE_BOND>
0

> <PUBCHEM_CACTVS_SUBSKEYS>
AAADcQBAMCAGAAAAAAAAAAAAAAAAAAAAAAAAAAAAAAAAAAAAAAAACgIAAAAAAAIAgIAACAAAAAAIAACQCAAAAAAAAAAAAAAAAQBAAAAAAAAAAAAAAAAAAAAAAAAAAAAAAAAAAAAAAAAAAAAAAAAAAAAAAA==

> <PUBCHEM_IUPAC_OPENEYE_NAME>
sodium;2,2,2-trichloroacetate

> <PUBCHEM_IUPAC_CAS_NAME>
sodium;2,2,2-trichloroacetate

> <PUBCHEM_IUPAC_NAME>
sodium;2,2,2-trichloroacetate

> <PUBCHEM_IUPAC_SYSTEMATIC_NAME>
sodium;2,2,2-tris(chloranyl)ethanoate

> <PUBCHEM_IUPAC_TRADITIONAL_NAME>
sodium;2,2,2-trichloroacetate

> <PUBCHEM_IUPAC_INCHI>
InChI=1S/C2HCl3O2.Na/c3-2(4,5)1(6)7;/h(H,6,7);/q;+1/p-1

> <PUBCHEM_IUPAC_INCHIKEY>
SAQSTQBVENFSKT-UHFFFAOYSA-M

> <PUBCHEM_EXACT_MASS>
183.886157

> <PUBCHEM_MOLECULAR_FORMULA>
C2Cl3NaO2

> <PUBCHEM_MOLECULAR_WEIGHT>
185.368969

> <PUBCHEM_OPENEYE_CAN_SMILES>
C(=O)(C(Cl)(Cl)Cl)[O-].[Na+]

> <PUBCHEM_OPENEYE_ISO_SMILES>
C(=O)(C(Cl)(Cl)Cl)[O-].[Na+]

> <PUBCHEM_CACTVS_TPSA>
40.1

> <PUBCHEM_MONOISOTOPIC_WEIGHT>
183.886157

> <PUBCHEM_TOTAL_CHARGE>
0

> <PUBCHEM_HEAVY_ATOM_COUNT>
8

> <PUBCHEM_ATOM_DEF_STEREO_COUNT>
0

> <PUBCHEM_ATOM_UDEF_STEREO_COUNT>
0

> <PUBCHEM_BOND_DEF_STEREO_COUNT>
0

> <PUBCHEM_BOND_UDEF_STEREO_COUNT>
0

> <PUBCHEM_ISOTOPIC_ATOM_COUNT>
0

> <PUBCHEM_COMPONENT_COUNT>
2

> <PUBCHEM_CACTVS_TAUTO_COUNT>
1

> <PUBCHEM_NONSTANDARDBOND>
4  5  7

> <PUBCHEM_COORDINATE_TYPE>
1
5
255

$$$$
11954258
  -OEChem-04291521482D

 86 87  0     1  0  0  0  0  0999 V2000
    4.8671    0.6546    0.0000 S   0  0  0  0  0  0  0  0  0  0  0  0
    8.3972    2.6788    0.0000 S   0  0  0  0  0  0  0  0  0  0  0  0
    5.7655   10.0197    0.0000 O   0  0  0  0  0  0  0  0  0  0  0  0
    5.7655   14.8478    0.0000 O   0  0  0  0  0  0  0  0  0  0  0  0
    7.4976   15.8478    0.0000 O   0  0  0  0  0  0  0  0  0  0  0  0
    7.4976   11.0197    0.0000 O   0  0  0  0  0  0  0  0  0  0  0  0
    3.1674   16.3478    0.0000 O   0  0  0  0  0  0  0  0  0  0  0  0
    3.1674   11.5197    0.0000 O   0  0  0  0  0  0  0  0  0  0  0  0
    6.6315   12.5197    0.0000 O   0  0  0  0  0  0  0  0  0  0  0  0
    6.6315   17.3478    0.0000 O   0  0  0  0  0  0  0  0  0  0  0  0
    4.0334   14.8478    0.0000 O   0  0  0  0  0  0  0  0  0  0  0  0
    4.0334   10.0197    0.0000 O   0  0  0  0  0  0  0  0  0  0  0  0
    3.1350    5.6546    0.0000 N   0  0  0  0  0  0  0  0  0  0  0  0
    1.4030    6.6546    0.0000 N   0  0  0  0  0  0  0  0  0  0  0  0
    4.8671    2.6546    0.0000 N   0  0  0  0  0  0  0  0  0  0  0  0
    3.1350    6.6546    0.0000 C   0  0  0  0  0  0  0  0  0  0  0  0
    2.2690    5.1546    0.0000 C   0  0  0  0  0  0  0  0  0  0  0  0
    1.4030    5.6546    0.0000 C   0  0  0  0  0  0  0  0  0  0  0  0
    2.2690    7.1546    0.0000 C   0  0  0  0  0  0  0  0  0  0  0  0
    4.0010    5.1546    0.0000 C   0  0  0  0  0  0  0  0  0  0  0  0
    4.0010    4.1546    0.0000 C   0  0  0  0  0  0  0  0  0  0  0  0
    4.8671    3.6546    0.0000 C   0  0  0  0  0  0  0  0  0  0  0  0
    0.5369    7.1546    0.0000 C   0  0  0  0  0  0  0  0  0  0  0  0
    5.7331    2.1546    0.0000 C   0  0  0  0  0  0  0  0  0  0  0  0
    4.0010    2.1546    0.0000 C   0  0  0  0  0  0  0  0  0  0  0  0
    5.7331    1.1546    0.0000 C   0  0  0  0  0  0  0  0  0  0  0  0
    4.0010    1.1546    0.0000 C   0  0  0  0  0  0  0  0  0  0  0  0
    6.6270    2.6893    0.0000 C   0  0  0  0  0  0  0  0  0  0  0  0
    3.1071    2.6893    0.0000 C   0  0  0  0  0  0  0  0  0  0  0  0
    6.6270    0.6200    0.0000 C   0  0  0  0  0  0  0  0  0  0  0  0
    3.1071    0.6200    0.0000 C   0  0  0  0  0  0  0  0  0  0  0  0
    7.5331    2.1754    0.0000 C   0  0  0  0  0  0  0  0  0  0  0  0
    2.2010    2.1754    0.0000 C   0  0  0  0  0  0  0  0  0  0  0  0
    7.5331    1.1338    0.0000 C   0  0  0  0  0  0  0  0  0  0  0  0
    2.2010    1.1338    0.0000 C   0  0  0  0  0  0  0  0  0  0  0  0
    9.2651    2.1821    0.0000 C   0  0  0  0  0  0  0  0  0  0  0  0
   10.1292    2.6854    0.0000 C   0  0  0  0  0  0  0  0  0  0  0  0
    5.7655   11.0197    0.0000 C   0  0  3  0  0  0  0  0  0  0  0  0
    5.7655   15.8478    0.0000 C   0  0  3  0  0  0  0  0  0  0  0  0
    4.8995   11.5197    0.0000 C   0  0  0  0  0  0  0  0  0  0  0  0
    4.8995   16.3478    0.0000 C   0  0  0  0  0  0  0  0  0  0  0  0
    6.6315   11.5197    0.0000 C   0  0  0  0  0  0  0  0  0  0  0  0
    6.6315   16.3478    0.0000 C   0  0  0  0  0  0  0  0  0  0  0  0
    4.0334   11.0197    0.0000 C   0  0  0  0  0  0  0  0  0  0  0  0
    4.0334   15.8478    0.0000 C   0  0  0  0  0  0  0  0  0  0  0  0
    1.8705    4.6797    0.0000 H   0  0  0  0  0  0  0  0  0  0  0  0
    2.6675    4.6797    0.0000 H   0  0  0  0  0  0  0  0  0  0  0  0
    3.7456    6.5470    0.0000 H   0  0  0  0  0  0  0  0  0  0  0  0
    3.3471    7.2372    0.0000 H   0  0  0  0  0  0  0  0  0  0  0  0
    2.6675    7.6296    0.0000 H   0  0  0  0  0  0  0  0  0  0  0  0
    0.7924    5.7623    0.0000 H   0  0  0  0  0  0  0  0  0  0  0  0
    1.1909    5.0720    0.0000 H   0  0  0  0  0  0  0  0  0  0  0  0
    1.8705    7.6296    0.0000 H   0  0  0  0  0  0  0  0  0  0  0  0
    4.6116    5.0470    0.0000 H   0  0  0  0  0  0  0  0  0  0  0  0
    4.2131    5.7372    0.0000 H   0  0  0  0  0  0  0  0  0  0  0  0
    3.3905    4.2623    0.0000 H   0  0  0  0  0  0  0  0  0  0  0  0
    3.7890    3.5720    0.0000 H   0  0  0  0  0  0  0  0  0  0  0  0
    5.4776    3.5470    0.0000 H   0  0  0  0  0  0  0  0  0  0  0  0
    5.0791    4.2372    0.0000 H   0  0  0  0  0  0  0  0  0  0  0  0
    0.8469    7.6916    0.0000 H   0  0  0  0  0  0  0  0  0  0  0  0
    0.0000    7.4646    0.0000 H   0  0  0  0  0  0  0  0  0  0  0  0
    0.2269    6.6177    0.0000 H   0  0  0  0  0  0  0  0  0  0  0  0
    6.6199    3.3092    0.0000 H   0  0  0  0  0  0  0  0  0  0  0  0
    3.1143    3.3092    0.0000 H   0  0  0  0  0  0  0  0  0  0  0  0
    6.6199    0.0000    0.0000 H   0  0  0  0  0  0  0  0  0  0  0  0
    3.1143    0.0000    0.0000 H   0  0  0  0  0  0  0  0  0  0  0  0
    1.6653    2.4875    0.0000 H   0  0  0  0  0  0  0  0  0  0  0  0
    8.0688    0.8217    0.0000 H   0  0  0  0  0  0  0  0  0  0  0  0
    1.6653    0.8217    0.0000 H   0  0  0  0  0  0  0  0  0  0  0  0
    8.8684    1.7056    0.0000 H   0  0  0  0  0  0  0  0  0  0  0  0
    9.6655    1.7087    0.0000 H   0  0  0  0  0  0  0  0  0  0  0  0
   10.4413    2.1497    0.0000 H   0  0  0  0  0  0  0  0  0  0  0  0
   10.6650    2.9975    0.0000 H   0  0  0  0  0  0  0  0  0  0  0  0
    9.8172    3.2212    0.0000 H   0  0  0  0  0  0  0  0  0  0  0  0
    6.3024   15.5378    0.0000 H   0  0  0  0  0  0  0  0  0  0  0  0
    5.2286   10.7097    0.0000 H   0  0  0  0  0  0  0  0  0  0  0  0
    5.2980   16.8227    0.0000 H   0  0  0  0  0  0  0  0  0  0  0  0
    5.2980   11.9946    0.0000 H   0  0  0  0  0  0  0  0  0  0  0  0
    4.5009   11.9946    0.0000 H   0  0  0  0  0  0  0  0  0  0  0  0
    4.5009   16.8227    0.0000 H   0  0  0  0  0  0  0  0  0  0  0  0
    5.2286   14.5378    0.0000 H   0  0  0  0  0  0  0  0  0  0  0  0
    5.2286    9.7097    0.0000 H   0  0  0  0  0  0  0  0  0  0  0  0
    8.0345   16.1578    0.0000 H   0  0  0  0  0  0  0  0  0  0  0  0
    8.0345   11.3297    0.0000 H   0  0  0  0  0  0  0  0  0  0  0  0
    2.6305   16.0378    0.0000 H   0  0  0  0  0  0  0  0  0  0  0  0
    2.6305   11.2097    0.0000 H   0  0  0  0  0  0  0  0  0  0  0  0
  1 26  1  0  0  0  0
  1 27  1  0  0  0  0
  2 32  1  0  0  0  0
  2 36  1  0  0  0  0
  3 38  1  0  0  0  0
  3 82  1  0  0  0  0
  4 39  1  0  0  0  0
  4 81  1  0  0  0  0
  5 43  1  0  0  0  0
  5 83  1  0  0  0  0
  6 42  1  0  0  0  0
  6 84  1  0  0  0  0
  7 45  1  0  0  0  0
  7 85  1  0  0  0  0
  8 44  1  0  0  0  0
  8 86  1  0  0  0  0
  9 42  2  0  0  0  0
 10 43  2  0  0  0  0
 11 45  2  0  0  0  0
 12 44  2  0  0  0  0
 13 16  1  0  0  0  0
 13 17  1  0  0  0  0
 13 20  1  0  0  0  0
 14 18  1  0  0  0  0
 14 19  1  0  0  0  0
 14 23  1  0  0  0  0
 15 22  1  0  0  0  0
 15 24  1  0  0  0  0
 15 25  1  0  0  0  0
 16 19  1  0  0  0  0
 16 48  1  0  0  0  0
 16 49  1  0  0  0  0
 17 18  1  0  0  0  0
 17 46  1  0  0  0  0
 17 47  1  0  0  0  0
 18 51  1  0  0  0  0
 18 52  1  0  0  0  0
 19 50  1  0  0  0  0
 19 53  1  0  0  0  0
 20 21  1  0  0  0  0
 20 54  1  0  0  0  0
 20 55  1  0  0  0  0
 21 22  1  0  0  0  0
 21 56  1  0  0  0  0
 21 57  1  0  0  0  0
 22 58  1  0  0  0  0
 22 59  1  0  0  0  0
 23 60  1  0  0  0  0
 23 61  1  0  0  0  0
 23 62  1  0  0  0  0
 24 26  2  0  0  0  0
 24 28  1  0  0  0  0
 25 27  1  0  0  0  0
 25 29  2  0  0  0  0
 26 30  1  0  0  0  0
 27 31  2  0  0  0  0
 28 32  2  0  0  0  0
 28 63  1  0  0  0  0
 29 33  1  0  0  0  0
 29 64  1  0  0  0  0
 30 34  2  0  0  0  0
 30 65  1  0  0  0  0
 31 35  1  0  0  0  0
 31 66  1  0  0  0  0
 32 34  1  0  0  0  0
 33 35  2  0  0  0  0
 33 67  1  0  0  0  0
 34 68  1  0  0  0  0
 35 69  1  0  0  0  0
 36 37  1  0  0  0  0
 36 70  1  0  0  0  0
 36 71  1  0  0  0  0
 37 72  1  0  0  0  0
 37 73  1  0  0  0  0
 37 74  1  0  0  0  0
 38 40  1  0  0  0  0
 38 42  1  0  0  0  0
 38 76  1  0  0  0  0
 39 41  1  0  0  0  0
 39 43  1  0  0  0  0
 39 75  1  0  0  0  0
 40 44  1  0  0  0  0
 40 78  1  0  0  0  0
 40 79  1  0  0  0  0
 41 45  1  0  0  0  0
 41 77  1  0  0  0  0
 41 80  1  0  0  0  0
M  END
> <PUBCHEM_COMPOUND_CID>
11954258

> <PUBCHEM_COMPOUND_CANONICALIZED>
1

> <PUBCHEM_CACTVS_COMPLEXITY>
584

> <PUBCHEM_CACTVS_HBOND_ACCEPTOR>
15

> <PUBCHEM_CACTVS_HBOND_DONOR>
6

> <PUBCHEM_CACTVS_ROTATABLE_BOND>
12

> <PUBCHEM_CACTVS_SUBSKEYS>
AAADcfB7PABgAAAAAAAAAAAAAAAAAAAAAAA8eIEAAAAAAACxQAAAHgQACAAACBzl0AayyYMAAgiIACTSSAKCAAAhChAIiB1IZIgJcHbg0ZGUYAxloADpyAdTAAAAAAgAACAAAQAAEAAAQAACAAAAAAAAAA==

> <PUBCHEM_IUPAC_OPENEYE_NAME>
2-ethylsulfanyl-10-[3-(4-methylpiperazin-1-yl)propyl]phenothiazine;2-hydroxybutanedioic acid

> <PUBCHEM_IUPAC_CAS_NAME>
2-(ethylthio)-10-[3-(4-methyl-1-piperazinyl)propyl]phenothiazine;2-hydroxybutanedioic acid

> <PUBCHEM_IUPAC_NAME>
2-ethylsulfanyl-10-[3-(4-methylpiperazin-1-yl)propyl]phenothiazine;2-hydroxybutanedioic acid

> <PUBCHEM_IUPAC_SYSTEMATIC_NAME>
2-ethylsulfanyl-10-[3-(4-methylpiperazin-1-yl)propyl]phenothiazine;2-oxidanylbutanedioic acid

> <PUBCHEM_IUPAC_TRADITIONAL_NAME>
2-(ethylthio)-10-[3-(4-methylpiperazino)propyl]phenothiazine;malic acid

> <PUBCHEM_IUPAC_INCHI>
InChI=1S/C22H29N3S2.2C4H6O5/c1-3-26-18-9-10-22-20(17-18)25(19-7-4-5-8-21(19)27-22)12-6-11-24-15-13-23(2)14-16-24;2*5-2(4(8)9)1-3(6)7/h4-5,7-10,17H,3,6,11-16H2,1-2H3;2*2,5H,1H2,(H,6,7)(H,8,9)

> <PUBCHEM_IUPAC_INCHIKEY>
GTHHLZDYRHLACN-UHFFFAOYSA-N

> <PUBCHEM_EXACT_MASS>
667.223337

> <PUBCHEM_MOLECULAR_FORMULA>
C30H41N3O10S2

> <PUBCHEM_MOLECULAR_WEIGHT>
667.79064

> <PUBCHEM_OPENEYE_CAN_SMILES>
CCSC1=CC2=C(C=C1)SC3=CC=CC=C3N2CCCN4CCN(CC4)C.C(C(C(=O)O)O)C(=O)O.C(C(C(=O)O)O)C(=O)O

> <PUBCHEM_OPENEYE_ISO_SMILES>
CCSC1=CC2=C(C=C1)SC3=CC=CC=C3N2CCCN4CCN(CC4)C.C(C(C(=O)O)O)C(=O)O.C(C(C(=O)O)O)C(=O)O

> <PUBCHEM_CACTVS_TPSA>
250

> <PUBCHEM_MONOISOTOPIC_WEIGHT>
667.223337

> <PUBCHEM_TOTAL_CHARGE>
0

> <PUBCHEM_HEAVY_ATOM_COUNT>
45

> <PUBCHEM_ATOM_DEF_STEREO_COUNT>
0

> <PUBCHEM_ATOM_UDEF_STEREO_COUNT>
2

> <PUBCHEM_BOND_DEF_STEREO_COUNT>
0

> <PUBCHEM_BOND_UDEF_STEREO_COUNT>
0

> <PUBCHEM_ISOTOPIC_ATOM_COUNT>
0

> <PUBCHEM_COMPONENT_COUNT>
3

> <PUBCHEM_CACTVS_TAUTO_COUNT>
1

> <PUBCHEM_COORDINATE_TYPE>
1
5
255

> <PUBCHEM_BONDANNOTATIONS>
24  26  8
24  28  8
25  27  8
25  29  8
26  30  8
27  31  8
28  32  8
29  33  8
38  3  3
30  34  8
31  35  8
32  34  8
33  35  8
39  4  3

$$$$
